<additional>

<!--Inductionloop detector-->

    <!-- Induction Loops at position 50 first egde 6 lane-->
    <inductionLoop id="loop_E2_0_50" lane="E2_0" pos="50" freq="10" file="detector/induction/loop_E2_0_50.xml"/>
    <inductionLoop id="loop_E2_1_50" lane="E2_1" pos="50" freq="10" file="detector/induction/loop_E2_1_50.xml"/>
    <inductionLoop id="loop_E2_2_50" lane="E2_2" pos="50" freq="10" file="detector/induction/loop_E2_2_50.xml"/>
    <inductionLoop id="loop_E2_3_50" lane="E2_3" pos="50" freq="10" file="detector/induction/loop_E2_3_50.xml"/>
    <inductionLoop id="loop_E2_4_50" lane="E2_4" pos="50" freq="10" file="detector/induction/loop_E2_4_50.xml"/>
    <inductionLoop id="loop_E2_5_50" lane="E2_5" pos="50" freq="10" file="detector/induction/loop_E2_5_50.xml"/>

    <!-- Induction Loops at position 60 ramp in egde 5 lane-->
    <inductionLoop id="loop_E0_0_60" lane="E0_0" pos="60" freq="10" file="detector/induction/loop_E0_0_60.xml"/>
    <inductionLoop id="loop_E0_1_60" lane="E0_1" pos="60" freq="10" file="detector/induction/loop_E0_1_60.xml"/>
    <inductionLoop id="loop_E0_2_60" lane="E0_2" pos="60" freq="10" file="detector/induction/loop_E0_2_60.xml"/>
    <inductionLoop id="loop_E0_3_60" lane="E0_3" pos="60" freq="10" file="detector/induction/loop_E0_3_60.xml"/>
    <inductionLoop id="loop_E0_4_60" lane="E0_4" pos="60" freq="10" file="detector/induction/loop_E0_4_60.xml"/>

    <!-- Induction Loops at position 650 longest egde first (E0.22) 5 lane-->
    <inductionLoop id="loop_E0.22_0_650" lane="E0.22_0" pos="650" freq="10" file="detector/induction/loop_E0.22_0_650.xml"/>
    <inductionLoop id="loop_E0.22_1_650" lane="E0.22_1" pos="650" freq="10" file="detector/induction/loop_E0.22_1_650.xml"/>
    <inductionLoop id="loop_E0.22_2_650" lane="E0.22_2" pos="650" freq="10" file="detector/induction/loop_E0.22_2_650.xml"/>
    <inductionLoop id="loop_E0.22_3_650" lane="E0.22_3" pos="650" freq="10" file="detector/induction/loop_E0.22_3_650.xml"/>
    <inductionLoop id="loop_E0.22_4_650" lane="E0.22_4" pos="650" freq="10" file="detector/induction/loop_E0.22_4_650.xml"/>

    <!-- Induction Loops at position 1300 longest egde 2nd (E0.22) 5 lane-->
    <inductionLoop id="loop_E0.22_0_1300" lane="E0.22_0" pos="1300" freq="10" file="detector/induction/loop_E0.22_0_1300.xml"/>
    <inductionLoop id="loop_E0.22_1_1300" lane="E0.22_1" pos="1300" freq="10" file="detector/induction/loop_E0.22_1_1300.xml"/>
    <inductionLoop id="loop_E0.22_2_1300" lane="E0.22_2" pos="1300" freq="10" file="detector/induction/loop_E0.22_2_1300.xml"/>
    <inductionLoop id="loop_E0.22_3_1300" lane="E0.22_3" pos="1300" freq="10" file="detector/induction/loop_E0.22_3_1300.xml"/>
    <inductionLoop id="loop_E0.22_4_1300" lane="E0.22_4" pos="1300" freq="10" file="detector/induction/loop_E0.22_4_1300.xml"/>

    <!-- Induction Loops at position 1947 longest egde 2nd (E0.22) 5 lane-->
    <inductionLoop id="loop_E0.22_0_1947" lane="E0.22_0" pos="1947" freq="10" file="detector/induction/loop_E0.22_0_1947.xml"/>
    <inductionLoop id="loop_E0.22_1_1947" lane="E0.22_1" pos="1947" freq="10" file="detector/induction/loop_E0.22_1_1947.xml"/>
    <inductionLoop id="loop_E0.22_2_1947" lane="E0.22_2" pos="1947" freq="10" file="detector/induction/loop_E0.22_2_1947.xml"/>
    <inductionLoop id="loop_E0.22_3_1947" lane="E0.22_3" pos="1947" freq="10" file="detector/induction/loop_E0.22_3_1947.xml"/>
    <inductionLoop id="loop_E0.22_4_1947" lane="E0.22_4" pos="1947" freq="10" file="detector/induction/loop_E0.22_4_1947.xml"/>

    <!-- Induction Loops at position 50 ramp out (E0.1681) 5 lane-->
    <inductionLoop id="loop_E0.1681_0_50" lane="E0.1681_0" pos="50" freq="10" file="detector/induction/loop_E0.1681_0_50.xml"/>
    <inductionLoop id="loop_E0.1681_1_50" lane="E0.1681_1" pos="50" freq="10" file="detector/induction/loop_E0.1681_1_50.xml"/>
    <inductionLoop id="loop_E0.1681_2_50" lane="E0.1681_2" pos="50" freq="10" file="detector/induction/loop_E0.1681_2_50.xml"/>
    <inductionLoop id="loop_E0.1681_3_50" lane="E0.1681_3" pos="50" freq="10" file="detector/induction/loop_E0.1681_3_50.xml"/>
    <inductionLoop id="loop_E0.1681_4_50" lane="E0.1681_4" pos="50" freq="10" file="detector/induction/loop_E0.1681_4_50.xml"/>

    <!-- Induction Loops at position 50 last (E4) 5 lane-->
    <inductionLoop id="loop_E4_0_50" lane="E4_0" pos="50" freq="10" file="detector/induction/loop_E4_0_50.xml"/>
    <inductionLoop id="loop_E4_1_50" lane="E4_1" pos="50" freq="10" file="detector/induction/loop_E4_1_50.xml"/>
    <inductionLoop id="loop_E4_2_50" lane="E4_2" pos="50" freq="10" file="detector/induction/loop_E4_2_50.xml"/>
    <inductionLoop id="loop_E4_3_50" lane="E4_3" pos="50" freq="10" file="detector/induction/loop_E4_3_50.xml"/>
    <inductionLoop id="loop_E4_4_50" lane="E4_4" pos="50" freq="10" file="detector/induction/loop_E4_4_50.xml"/>

<!--lane area detector-->

    <!-- Lane Area Detectors for first(E2) the same lanes (pos 0-100) 6 lane-->
    <laneAreaDetector id="lad_E2_0_0_100" lane="E2_0" pos="0" endPos="100" freq="1" file="detector/lad/lad_E2_0.xml"/>
    <laneAreaDetector id="lad_E2_1_0_100" lane="E2_1" pos="0" endPos="100" freq="1" file="detector/lad/lad_E2_1.xml"/>
    <laneAreaDetector id="lad_E2_2_0_100" lane="E2_2" pos="0" endPos="100" freq="1" file="detector/lad/lad_E2_2.xml"/>
    <laneAreaDetector id="lad_E2_3_0_100" lane="E2_3" pos="0" endPos="100" freq="1" file="detector/lad/lad_E2_3.xml"/>
    <laneAreaDetector id="lad_E2_4_0_100" lane="E2_4" pos="0" endPos="100" freq="1" file="detector/lad/lad_E2_4.xml"/>
    <laneAreaDetector id="lad_E2_5_0_100" lane="E2_5" pos="0" endPos="100" freq="1" file="detector/lad/lad_E2_5.xml"/>

    <!-- Lane Area Detectors for ramp in(E0) the same lanes (pos 20-100) 5 lane-->
    <laneAreaDetector id="lad_E0_0_20_120" lane="E0_0" pos="20" endPos="100" freq="1" file="detector/lad/lad_E0_0.xml"/>
    <laneAreaDetector id="lad_E0_1_20_120" lane="E0_1" pos="20" endPos="100" freq="1" file="detector/lad/lad_E0_1.xml"/>
    <laneAreaDetector id="lad_E0_2_20_120" lane="E0_2" pos="20" endPos="100" freq="1" file="detector/lad/lad_E0_2.xml"/>
    <laneAreaDetector id="lad_E0_3_20_120" lane="E0_3" pos="20" endPos="100" freq="1" file="detector/lad/lad_E0_3.xml"/>
    <laneAreaDetector id="lad_E0_4_20_120" lane="E0_4" pos="20" endPos="100" freq="1" file="detector/lad/lad_E0_4.xml"/>

    <!-- Lane Area Detectors for longest(E0.22) the same lanes (pos 650-750) 5 lane-->
    <laneAreaDetector id="lad_E0.22_0_650_750" lane="E0.22_0" pos="650" endPos="750" freq="1" file="detector/lad/lad_E0.22_0_650_750.xml"/>
    <laneAreaDetector id="lad_E0.22_1_650_750" lane="E0.22_1" pos="650" endPos="750" freq="1" file="detector/lad/lad_E0.22_1_650_750.xml"/>
    <laneAreaDetector id="lad_E0.22_2_650_750" lane="E0.22_2" pos="650" endPos="750" freq="1" file="detector/lad/lad_E0.22_2_650_750.xml"/>
    <laneAreaDetector id="lad_E0.22_3_650_750" lane="E0.22_3" pos="650" endPos="750" freq="1" file="detector/lad/lad_E0.22_3_650_750.xml"/>
    <laneAreaDetector id="lad_E0.22_4_650_750" lane="E0.22_4" pos="650" endPos="750" freq="1" file="detector/lad/lad_E0.22_4_650_750.xml"/>

    <!-- Lane Area Detectors for longest(E0.22) the same lanes (pos 1300-1500) 5 lane-->
    <laneAreaDetector id="lad_E0.22_0_1300_1500" lane="E0.22_0" pos="1300" endPos="1500" freq="1" file="detector/lad/lad_E0.22_0_1300_1500.xml"/>
    <laneAreaDetector id="lad_E0.22_1_1300_1500" lane="E0.22_1" pos="1300" endPos="1500" freq="1" file="detector/lad/lad_E0.22_1_1300_1500.xml"/>
    <laneAreaDetector id="lad_E0.22_2_1300_1500" lane="E0.22_2" pos="1300" endPos="1500" freq="1" file="detector/lad/lad_E0.22_2_1300_1500.xml"/>
    <laneAreaDetector id="lad_E0.22_3_1300_1500" lane="E0.22_3" pos="1300" endPos="1500" freq="1" file="detector/lad/lad_E0.22_3_1300_1500.xml"/>
    <laneAreaDetector id="lad_E0.22_4_1300_1500" lane="E0.22_4" pos="1300" endPos="1500" freq="1" file="detector/lad/lad_E0.22_4_1300_1500.xml"/>

    <!-- Lane Area Detectors for longest(E0.22) the same lanes (pos 1800-1900) 5 lane-->
    <laneAreaDetector id="lad_E0.22_0_1800_1900" lane="E0.22_0" pos="1800" endPos="1900" freq="1" file="detector/lad/lad_E0.22_0_1800_1900.xml"/>
    <laneAreaDetector id="lad_E0.22_1_1800_1900" lane="E0.22_1" pos="1800" endPos="1900" freq="1" file="detector/lad/lad_E0.22_1_1800_1900.xml"/>
    <laneAreaDetector id="lad_E0.22_2_1800_1900" lane="E0.22_2" pos="1800" endPos="1900" freq="1" file="detector/lad/lad_E0.22_2_1800_1900.xml"/>
    <laneAreaDetector id="lad_E0.22_3_1800_1900" lane="E0.22_3" pos="1800" endPos="1900" freq="1" file="detector/lad/lad_E0.22_3_1800_1900.xml"/>
    <laneAreaDetector id="lad_E0.22_4_1800_1900" lane="E0.22_4" pos="1800" endPos="1900" freq="1" file="detector/lad/lad_E0.22_4_1800_1900.xml"/>



</additional>

