<?xml version="1.0" encoding="UTF-8"?>

<!-- generated on 2025-10-25 19:06:38 by Eclipse SUMO netedit Version 1.23.1
<neteditConfiguration xmlns:xsi="http://www.w3.org/2001/XMLSchema-instance" xsi:noNamespaceSchemaLocation="http://sumo.dlr.de/xsd/neteditConfiguration.xsd">

    <input>
        <sumo-net-file value="F:\ALL Works\Express way\v2\expressway.net.xml"/>
    </input>

    <output>
        <output-file value="F:\ALL Works\Express way\v2\expressway.net.xml"/>
    </output>

    <processing>
        <geometry.min-radius.fix.railways value="false"/>
        <geometry.avoid-overlap value="false"/>
        <geometry.max-grade.fix value="false"/>
        <offset.disable-normalization value="true"/>
        <lefthand value="0"/>
    </processing>

    <junctions>
        <no-turnarounds value="true"/>
        <junctions.corner-detail value="5"/>
        <junctions.limit-turn-speed value="5.50"/>
        <rectangular-lane-cut value="0"/>
    </junctions>

    <pedestrian>
        <walkingareas value="0"/>
    </pedestrian>

</neteditConfiguration>
-->

<net version="1.20" junctionCornerDetail="5" limitTurnSpeed="5.50" avoidOverlap="0" xmlns:xsi="http://www.w3.org/2001/XMLSchema-instance" xsi:noNamespaceSchemaLocation="http://sumo.dlr.de/xsd/net_file.xsd">

    <location netOffset="0.00,0.00" convBoundary="-200.00,-300.00,1700.00,44.44" origBoundary="-10000000000.00,-10000000000.00,10000000000.00,10000000000.00" projParameter="!"/>

    <edge id=":J0_0" function="internal">
        <lane id=":J0_0_0" index="0" speed="9.10" length="5.44" shape="-94.03,-8.00 -92.46,-8.11 -91.42,-8.46 -90.47,-9.11 -89.20,-10.10"/>
    </edge>
    <edge id=":J0_1" function="internal">
        <lane id=":J0_1_0" index="0" speed="12.50" length="6.34" shape="-94.03,-4.80 -92.20,-5.04 -90.98,-5.57 -89.77,-6.09 -87.94,-6.30"/>
        <lane id=":J0_1_1" index="1" speed="12.50" length="6.34" shape="-94.03,-1.60 -92.20,-1.84 -90.98,-2.37 -89.77,-2.89 -87.94,-3.10"/>
        <lane id=":J0_1_2" index="2" speed="12.50" length="6.34" shape="-94.03,1.60 -92.20,1.36 -90.98,0.83 -89.77,0.31 -87.94,0.10"/>
        <lane id=":J0_1_3" index="3" speed="12.50" length="6.34" shape="-94.03,4.80 -92.20,4.56 -90.98,4.03 -89.77,3.51 -87.94,3.30"/>
        <lane id=":J0_1_4" index="4" speed="12.50" length="6.34" shape="-94.03,8.00 -92.20,7.76 -90.98,7.23 -89.77,6.71 -87.94,6.50"/>
    </edge>
    <edge id=":J1_0" function="internal">
        <lane id=":J1_0_0" index="0" speed="9.23" length="4.83" shape="1606.18,-7.74 1607.54,-8.08 1608.43,-8.51 1609.19,-9.17 1610.19,-10.19"/>
    </edge>
    <edge id=":J1_1" function="internal">
        <lane id=":J1_1_0" index="0" speed="12.50" length="4.74" shape="1606.18,-7.74 1607.83,-7.77 1608.95,-7.28 1610.07,-6.69 1611.76,-6.40"/>
        <lane id=":J1_1_1" index="1" speed="12.50" length="4.74" shape="1606.80,-4.60 1608.28,-4.59 1609.26,-4.09 1610.25,-3.49 1611.76,-3.20"/>
        <lane id=":J1_1_2" index="2" speed="12.50" length="4.74" shape="1607.42,-1.46 1608.72,-1.42 1609.57,-0.90 1610.43,-0.29 1611.76,0.00"/>
        <lane id=":J1_1_3" index="3" speed="12.50" length="4.74" shape="1608.03,1.68 1609.17,1.75 1609.88,2.29 1610.61,2.91 1611.76,3.20"/>
        <lane id=":J1_1_4" index="4" speed="12.50" length="4.74" shape="1608.65,4.82 1609.62,4.92 1610.20,5.48 1610.78,6.11 1611.76,6.40"/>
    </edge>
    <edge id=":J4_0" function="internal">
        <lane id=":J4_0_0" index="0" speed="12.50" length="0.30" shape="-77.10,-6.07 -76.78,-6.06"/>
        <lane id=":J4_0_1" index="1" speed="12.50" length="0.30" shape="-77.17,-2.87 -76.86,-2.86"/>
        <lane id=":J4_0_2" index="2" speed="12.50" length="0.30" shape="-77.25,0.33 -76.95,0.33"/>
        <lane id=":J4_0_3" index="3" speed="12.50" length="0.30" shape="-77.33,3.53 -77.04,3.53"/>
        <lane id=":J4_0_4" index="4" speed="12.50" length="0.30" shape="-77.40,6.72 -77.12,6.73"/>
    </edge>
    <edge id=":J7_0" function="internal">
        <lane id=":J7_0_0" index="0" speed="12.50" length="0.10" shape="1577.81,-2.26 1577.81,-2.26"/>
        <lane id=":J7_0_1" index="1" speed="12.50" length="0.10" shape="1578.38,0.89 1578.38,0.89"/>
        <lane id=":J7_0_2" index="2" speed="12.50" length="0.10" shape="1578.96,4.03 1578.96,4.03"/>
        <lane id=":J7_0_3" index="3" speed="12.50" length="0.10" shape="1579.53,7.18 1579.53,7.18"/>
        <lane id=":J7_0_4" index="4" speed="12.50" length="0.10" shape="1580.10,10.33 1580.10,10.33"/>
    </edge>

    <edge id="E0" from="J0" to="J4" priority="-1" spreadType="center" length="100.00" shape="-100.00,0.00 -97.95,0.00 -95.85,0.01 -93.69,0.03 -91.48,0.05 -89.21,0.08 -86.89,0.12 -84.52,0.16 -82.10,0.21 -79.63,0.27 -77.10,0.33">
        <lane id="E0_0" index="0" speed="11.11" length="100.00" shape="-87.94,-6.30 -86.78,-6.28 -84.40,-6.24 -81.96,-6.19 -79.48,-6.13 -77.10,-6.07"/>
        <lane id="E0_1" index="1" speed="11.11" length="100.00" shape="-87.94,-3.10 -86.84,-3.08 -84.46,-3.04 -82.03,-2.99 -79.55,-2.93 -77.17,-2.87"/>
        <lane id="E0_2" index="2" speed="11.11" length="100.00" shape="-87.94,0.10 -86.89,0.12 -84.52,0.16 -82.10,0.21 -79.63,0.27 -77.25,0.33"/>
        <lane id="E0_3" index="3" speed="11.11" length="100.00" shape="-87.94,3.30 -86.94,3.32 -84.58,3.36 -82.17,3.41 -79.71,3.47 -77.33,3.53"/>
        <lane id="E0_4" index="4" speed="11.11" length="100.00" shape="-87.94,6.50 -87.00,6.52 -84.64,6.56 -82.24,6.61 -79.78,6.67 -77.40,6.72"/>
    </edge>
    <edge id="E0.1681" from="J7" to="J1" priority="-1" spreadType="center" length="100.00" shape="1578.96,4.03 1581.23,3.62 1584.68,2.97 1588.11,2.32 1591.53,1.67 1594.93,1.00 1600.00,0.00">
        <lane id="E0.1681_0" index="0" speed="11.11" length="100.00" shape="1577.81,-2.26 1580.06,-2.67 1583.49,-3.32 1586.92,-3.97 1590.31,-4.61 1593.69,-5.28 1606.18,-7.74"/>
        <lane id="E0.1681_1" index="1" speed="11.11" length="100.00" shape="1578.38,0.89 1580.65,0.47 1584.09,-0.17 1587.51,-0.82 1590.92,-1.47 1594.31,-2.14 1606.80,-4.60"/>
        <lane id="E0.1681_2" index="2" speed="11.11" length="100.00" shape="1578.96,4.03 1581.23,3.62 1584.68,2.97 1588.11,2.32 1591.53,1.67 1594.93,1.00 1607.42,-1.46"/>
        <lane id="E0.1681_3" index="3" speed="11.11" length="100.00" shape="1579.53,7.18 1581.81,6.77 1585.27,6.11 1588.71,5.46 1592.14,4.81 1595.55,4.14 1608.03,1.68"/>
        <lane id="E0.1681_4" index="4" speed="11.11" length="100.00" shape="1580.10,10.33 1582.40,9.91 1585.87,9.26 1589.30,8.61 1592.75,7.95 1596.17,7.28 1608.65,4.82"/>
    </edge>
    <edge id="E0.22" from="J4" to="J7" priority="-1" spreadType="center" length="1947.96" shape="-77.10,0.33 -74.52,0.40 -71.89,0.47 -69.21,0.55 -66.48,0.64 -63.70,0.73 -60.86,0.83 -57.98,0.93 -55.05,1.04 -52.07,1.15 -50.06,1.23 -48.02,1.31 -45.96,1.40 -43.88,1.48 -41.78,1.57 -39.66,1.66 -37.52,1.76 -35.36,1.85 -33.17,1.95 -30.97,2.05 -28.74,2.15 -26.49,2.26 -24.23,2.37 -21.94,2.48 -19.63,2.59 -17.30,2.70 -14.95,2.82 -12.58,2.93 -10.19,3.05 -7.78,3.18 -5.35,3.30 -2.90,3.43 -0.43,3.55 2.06,3.68 4.57,3.81 7.09,3.95 9.64,4.08 12.21,4.22 14.79,4.36 17.40,4.50 20.02,4.65 22.67,4.79 25.33,4.94 28.01,5.09 30.71,5.24 33.43,5.39 36.17,5.54 38.92,5.70 41.69,5.86 44.49,6.01 47.30,6.17 50.12,6.34 52.97,6.50 55.84,6.67 58.72,6.83 61.62,7.00 64.53,7.17 67.47,7.34 70.42,7.51 73.39,7.69 76.38,7.86 79.38,8.04 82.40,8.22 85.44,8.40 88.50,8.58 91.57,8.76 94.66,8.95 97.76,9.13 100.89,9.32 104.02,9.51 107.18,9.69 110.35,9.88 113.54,10.08 116.74,10.27 119.96,10.46 123.20,10.66 126.45,10.85 129.72,11.05 133.00,11.25 136.30,11.45 139.61,11.64 142.94,11.85 146.29,12.05 149.65,12.25 153.02,12.45 156.41,12.66 159.82,12.86 163.24,13.07 166.68,13.28 170.12,13.49 173.59,13.69 177.07,13.90 180.56,14.12 184.07,14.33 187.59,14.54 191.13,14.75 194.68,14.96 198.24,15.18 201.82,15.39 205.41,15.61 209.02,15.82 212.64,16.04 216.27,16.26 219.92,16.48 223.58,16.69 227.25,16.91 230.94,17.13 234.64,17.35 238.35,17.57 242.08,17.79 245.82,18.01 249.57,18.23 253.33,18.46 257.11,18.68 260.90,18.90 264.70,19.12 268.52,19.35 272.34,19.57 276.18,19.79 280.03,20.02 283.89,20.24 287.77,20.46 291.65,20.69 295.55,20.91 299.46,21.14 303.38,21.36 307.32,21.59 311.26,21.81 315.21,22.03 319.18,22.26 323.16,22.48 327.15,22.71 331.15,22.93 333.15,23.05 335.16,23.16 337.16,23.27 339.18,23.38 341.19,23.50 343.21,23.61 345.23,23.72 347.25,23.83 349.28,23.94 351.30,24.06 353.33,24.17 355.37,24.28 357.40,24.39 359.44,24.50 361.48,24.62 363.52,24.73 365.57,24.84 367.62,24.95 369.67,25.06 371.72,25.17 373.78,25.28 375.83,25.40 377.89,25.51 379.96,25.62 382.02,25.73 384.09,25.84 386.16,25.95 388.23,26.06 390.31,26.17 392.39,26.28 394.47,26.39 396.55,26.51 398.63,26.62 400.72,26.73 402.81,26.84 404.90,26.95 406.99,27.06 409.09,27.17 411.19,27.28 413.29,27.39 415.39,27.50 417.50,27.60 419.60,27.71 421.71,27.82 423.83,27.93 425.94,28.04 428.06,28.15 430.18,28.26 432.30,28.37 434.42,28.48 436.54,28.58 438.67,28.69 440.80,28.80 442.93,28.91 445.06,29.02 447.20,29.12 449.34,29.23 451.48,29.34 453.62,29.44 455.76,29.55 457.91,29.66 460.06,29.76 462.21,29.87 464.36,29.98 466.51,30.08 468.67,30.19 470.83,30.29 472.99,30.40 475.15,30.50 477.31,30.61 479.48,30.71 481.65,30.82 483.82,30.92 485.99,31.03 488.16,31.13 490.34,31.24 492.51,31.34 494.69,31.44 496.87,31.55 499.06,31.65 501.24,31.75 503.43,31.85 505.61,31.96 507.80,32.06 510.00,32.16 512.19,32.26 514.38,32.36 516.58,32.46 518.78,32.57 520.98,32.67 523.18,32.77 525.39,32.87 527.59,32.97 529.80,33.07 532.01,33.17 534.22,33.26 536.43,33.36 538.64,33.46 540.86,33.56 543.08,33.66 545.30,33.76 547.52,33.85 549.74,33.95 551.96,34.05 554.19,34.14 556.41,34.24 558.64,34.34 560.87,34.43 563.10,34.53 565.33,34.62 567.57,34.72 569.80,34.81 572.04,34.91 574.28,35.00 576.52,35.10 578.76,35.19 581.00,35.28 583.25,35.37 585.49,35.47 587.74,35.56 589.99,35.65 592.24,35.74 594.49,35.83 596.74,35.92 598.99,36.01 601.25,36.10 603.50,36.19 605.76,36.28 608.02,36.37 610.28,36.46 612.54,36.55 614.81,36.64 617.07,36.73 619.34,36.81 621.60,36.90 623.87,36.99 626.14,37.07 628.41,37.16 630.68,37.25 632.95,37.33 635.23,37.42 637.50,37.50 639.78,37.58 642.05,37.67 644.33,37.75 646.61,37.83 648.89,37.92 651.17,38.00 653.45,38.08 655.74,38.16 658.02,38.24 660.31,38.32 662.59,38.40 664.88,38.48 667.17,38.56 669.46,38.64 671.75,38.72 674.04,38.80 676.33,38.88 678.63,38.95 680.92,39.03 683.22,39.11 685.51,39.18 687.81,39.26 690.11,39.33 692.41,39.41 694.71,39.48 697.01,39.56 699.31,39.63 701.61,39.70 703.92,39.77 706.22,39.85 708.52,39.92 710.83,39.99 713.14,40.06 715.44,40.13 717.75,40.20 720.06,40.27 722.37,40.34 724.68,40.41 726.99,40.47 729.30,40.54 731.61,40.61 733.93,40.67 736.24,40.74 738.56,40.80 740.87,40.87 743.19,40.93 745.50,41.00 747.82,41.06 750.14,41.12 752.45,41.19 754.77,41.25 757.09,41.31 759.41,41.37 761.73,41.43 764.05,41.49 766.37,41.55 768.70,41.61 771.02,41.67 773.34,41.73 775.66,41.78 777.99,41.84 780.31,41.90 782.64,41.95 784.96,42.01 787.29,42.06 789.61,42.11 791.94,42.17 794.27,42.22 796.59,42.27 798.92,42.32 801.25,42.38 803.58,42.43 805.91,42.48 808.23,42.53 810.56,42.58 812.89,42.62 815.22,42.67 817.55,42.72 819.88,42.77 822.21,42.81 824.55,42.86 826.88,42.90 829.21,42.95 831.54,42.99 833.87,43.03 836.20,43.08 838.54,43.12 840.87,43.16 843.20,43.20 845.53,43.24 847.87,43.28 850.20,43.32 852.53,43.36 854.86,43.39 857.20,43.43 859.53,43.47 861.86,43.50 864.20,43.54 866.53,43.57 868.87,43.61 871.20,43.64 873.53,43.67 875.87,43.71 878.20,43.74 880.53,43.77 882.87,43.80 885.20,43.83 887.53,43.86 889.87,43.88 892.20,43.91 894.53,43.94 896.87,43.96 899.20,43.99 901.53,44.02 903.87,44.04 906.20,44.06 908.53,44.09 910.86,44.11 913.20,44.13 915.53,44.15 917.86,44.17 920.19,44.19 922.52,44.21 924.85,44.23 927.19,44.24 929.52,44.26 931.85,44.28 934.18,44.29 936.51,44.31 938.84,44.32 941.17,44.33 943.49,44.35 945.82,44.36 948.15,44.37 950.48,44.38 952.81,44.39 955.13,44.40 957.46,44.40 959.79,44.41 962.11,44.42 964.44,44.42 966.77,44.43 969.09,44.43 971.41,44.44 973.74,44.44 976.06,44.44 978.38,44.44 980.71,44.44 983.03,44.44 985.35,44.44 987.67,44.44 989.99,44.44 992.31,44.44 994.63,44.43 996.95,44.43 999.27,44.42 1001.59,44.42 1003.90,44.41 1006.22,44.40 1008.54,44.39 1010.85,44.38 1013.16,44.37 1015.48,44.36 1017.79,44.35 1020.10,44.34 1022.42,44.32 1024.73,44.31 1027.04,44.29 1029.35,44.28 1031.66,44.26 1033.96,44.24 1036.27,44.23 1038.58,44.21 1040.88,44.19 1043.19,44.17 1045.49,44.15 1047.80,44.12 1050.10,44.10 1052.40,44.08 1054.70,44.05 1057.00,44.03 1059.30,44.00 1061.60,43.97 1063.90,43.94 1066.19,43.91 1068.49,43.88 1070.79,43.85 1073.08,43.82 1075.37,43.79 1077.66,43.76 1079.95,43.72 1082.24,43.69 1084.53,43.65 1086.82,43.61 1089.11,43.58 1091.39,43.54 1093.68,43.50 1095.96,43.46 1098.25,43.42 1100.53,43.37 1102.81,43.33 1105.09,43.29 1107.37,43.24 1109.64,43.20 1111.92,43.15 1114.20,43.10 1116.47,43.05 1118.74,43.01 1121.01,42.96 1123.28,42.90 1125.55,42.85 1127.82,42.80 1130.09,42.75 1132.35,42.69 1134.62,42.64 1136.88,42.58 1139.14,42.52 1141.41,42.46 1143.66,42.40 1145.92,42.34 1148.18,42.28 1150.44,42.22 1152.69,42.16 1154.94,42.09 1157.19,42.03 1159.44,41.96 1161.69,41.89 1163.94,41.83 1166.19,41.76 1168.43,41.69 1170.67,41.62 1172.92,41.54 1175.16,41.47 1177.40,41.40 1179.63,41.32 1181.87,41.25 1184.10,41.17 1186.34,41.09 1188.57,41.01 1190.80,40.93 1193.03,40.85 1195.25,40.77 1197.48,40.69 1199.70,40.61 1201.93,40.52 1204.15,40.44 1206.37,40.35 1208.58,40.26 1210.80,40.17 1213.01,40.08 1215.23,39.99 1217.44,39.90 1219.65,39.81 1221.85,39.71 1224.06,39.62 1226.27,39.52 1228.47,39.43 1230.67,39.33 1232.87,39.23 1235.07,39.13 1237.26,39.03 1239.46,38.93 1241.65,38.82 1243.84,38.72 1246.03,38.61 1248.21,38.51 1250.40,38.40 1252.58,38.29 1254.76,38.18 1256.94,38.07 1259.12,37.96 1261.30,37.85 1263.47,37.73 1265.64,37.62 1267.82,37.50 1269.98,37.39 1272.15,37.27 1274.31,37.15 1276.48,37.03 1278.64,36.91 1280.80,36.78 1282.95,36.66 1285.11,36.54 1287.26,36.41 1289.41,36.28 1291.56,36.16 1293.71,36.03 1295.85,35.90 1297.99,35.77 1300.13,35.63 1302.27,35.50 1304.41,35.37 1306.54,35.23 1308.68,35.09 1310.81,34.95 1312.93,34.82 1315.06,34.68 1317.18,34.53 1319.31,34.39 1321.42,34.25 1323.54,34.10 1325.66,33.96 1327.77,33.81 1329.88,33.66 1331.99,33.51 1334.09,33.36 1336.20,33.21 1338.30,33.06 1340.40,32.90 1342.50,32.75 1344.59,32.59 1346.68,32.43 1348.77,32.27 1350.86,32.11 1352.95,31.95 1355.03,31.79 1357.11,31.63 1359.19,31.46 1361.26,31.30 1363.34,31.13 1365.41,30.96 1367.48,30.79 1369.54,30.62 1371.61,30.45 1373.67,30.28 1375.73,30.10 1377.79,29.93 1379.84,29.75 1381.89,29.57 1383.94,29.39 1385.99,29.21 1388.03,29.03 1390.07,28.85 1392.11,28.66 1394.15,28.48 1396.18,28.29 1398.21,28.11 1400.24,27.92 1402.27,27.73 1404.29,27.53 1406.31,27.34 1408.33,27.15 1410.34,26.95 1412.36,26.76 1414.37,26.56 1416.38,26.36 1418.38,26.16 1420.38,25.96 1422.38,25.76 1424.38,25.55 1426.37,25.35 1428.36,25.14 1430.35,24.93 1432.34,24.72 1436.30,24.30 1440.25,23.87 1444.19,23.44 1448.12,23.00 1452.04,22.56 1455.94,22.11 1459.84,21.66 1463.72,21.20 1467.59,20.74 1471.45,20.27 1475.30,19.79 1479.13,19.31 1482.95,18.83 1486.77,18.34 1490.56,17.84 1494.35,17.34 1498.12,16.83 1501.88,16.32 1505.63,15.80 1509.36,15.28 1513.09,14.75 1516.79,14.21 1520.49,13.67 1524.17,13.13 1527.84,12.58 1531.50,12.02 1535.14,11.46 1538.77,10.89 1542.39,10.31 1545.99,9.73 1549.58,9.15 1553.15,8.56 1556.71,7.96 1560.26,7.36 1563.79,6.75 1567.31,6.13 1570.81,5.51 1574.30,4.89 1577.77,4.25 1578.96,4.03">
        <lane id="E0.22_0" index="0" speed="13.89" length="1947.96" shape="-76.78,-6.06 -74.35,-6.00 -71.71,-5.93 -69.01,-5.85 -66.27,-5.76 -63.48,-5.67 -60.64,-5.57 -57.75,-5.47 -54.81,-5.36 -51.83,-5.25 -49.81,-5.17 -47.75,-5.08 -45.70,-4.99 -43.62,-4.91 -41.51,-4.82 -39.37,-4.73 -37.24,-4.63 -35.08,-4.54 -32.88,-4.44 -30.68,-4.34 -28.44,-4.24 -26.18,-4.13 -23.92,-4.02 -21.63,-3.91 -19.33,-3.80 -16.99,-3.69 -14.64,-3.57 -12.27,-3.46 -9.86,-3.34 -7.45,-3.21 -5.02,-3.09 -2.58,-2.96 -0.11,-2.84 2.39,-2.71 4.91,-2.58 7.43,-2.44 9.98,-2.31 12.56,-2.17 15.13,-2.03 17.75,-1.89 20.37,-1.74 23.02,-1.60 25.69,-1.45 28.37,-1.30 31.06,-1.15 33.78,-1.00 36.53,-0.85 39.29,-0.69 42.05,-0.53 44.84,-0.38 47.67,-0.22 50.49,-0.05 53.34,0.11 56.21,0.28 59.08,0.44 61.99,0.61 64.90,0.78 67.84,0.95 70.80,1.12 73.77,1.30 76.75,1.47 79.76,1.65 82.78,1.83 85.82,2.01 88.88,2.19 91.95,2.37 95.04,2.56 98.14,2.74 101.28,2.93 104.40,3.12 107.55,3.30 110.74,3.49 113.93,3.69 117.12,3.88 120.35,4.07 123.58,4.27 126.83,4.46 130.11,4.66 133.39,4.86 136.68,5.06 139.99,5.25 143.33,5.46 146.67,5.66 150.03,5.86 153.41,6.06 156.80,6.27 160.20,6.47 163.63,6.68 167.07,6.89 170.50,7.10 173.97,7.30 177.46,7.51 180.95,7.73 184.45,7.94 187.97,8.15 191.51,8.36 195.07,8.57 198.62,8.79 202.20,9.00 205.79,9.22 209.40,9.43 213.03,9.65 216.66,9.87 220.30,10.09 223.95,10.30 227.63,10.52 231.32,10.74 235.02,10.96 238.73,11.18 242.46,11.40 246.20,11.62 249.95,11.84 253.71,12.07 257.48,12.29 261.27,12.51 265.08,12.73 268.90,12.96 272.71,13.18 276.55,13.40 280.40,13.63 284.25,13.85 288.14,14.07 292.02,14.30 295.92,14.52 299.83,14.75 303.75,14.97 307.68,15.20 311.62,15.42 315.57,15.64 319.54,15.87 323.52,16.09 327.51,16.32 331.51,16.54 333.52,16.66 335.51,16.77 337.51,16.88 339.54,16.99 341.55,17.11 343.56,17.22 345.58,17.33 347.60,17.44 349.64,17.55 351.66,17.67 353.68,17.78 355.72,17.89 357.75,18.00 359.80,18.11 361.84,18.23 363.86,18.34 365.91,18.45 367.96,18.56 370.01,18.67 372.06,18.78 374.14,18.89 376.19,19.01 378.23,19.12 380.30,19.23 382.36,19.34 384.43,19.45 386.50,19.56 388.57,19.67 390.65,19.78 392.73,19.89 394.82,20.00 396.90,20.12 398.97,20.23 401.06,20.34 403.15,20.45 405.24,20.56 407.33,20.67 409.42,20.78 411.52,20.89 413.62,21.00 415.71,21.11 417.82,21.21 419.93,21.32 422.04,21.43 424.16,21.54 426.27,21.65 428.39,21.76 430.51,21.87 432.63,21.98 434.74,22.09 436.86,22.19 439.00,22.30 441.13,22.41 443.26,22.52 445.37,22.63 447.51,22.73 449.67,22.84 451.79,22.95 453.93,23.05 456.09,23.16 458.22,23.27 460.37,23.37 462.54,23.48 464.67,23.59 466.82,23.69 468.98,23.80 471.14,23.90 473.30,24.01 475.46,24.11 477.62,24.22 479.79,24.32 481.96,24.43 484.13,24.53 486.30,24.64 488.47,24.74 490.65,24.85 492.80,24.95 495.00,25.05 497.18,25.16 499.35,25.26 501.53,25.36 503.74,25.46 505.92,25.57 508.09,25.67 510.29,25.77 512.48,25.87 514.67,25.97 516.89,26.07 519.09,26.18 521.27,26.28 523.47,26.38 525.68,26.48 527.88,26.58 530.09,26.68 532.28,26.78 534.49,26.87 536.72,26.97 538.93,27.07 541.15,27.17 543.37,27.27 545.57,27.37 547.79,27.46 550.03,27.56 552.23,27.66 554.46,27.75 556.70,27.85 558.91,27.95 561.14,28.04 563.37,28.14 565.60,28.23 567.84,28.33 570.07,28.42 572.31,28.52 574.55,28.61 576.79,28.71 579.02,28.80 581.26,28.89 583.52,28.98 585.76,29.08 588.00,29.17 590.25,29.26 592.50,29.35 594.75,29.44 597.00,29.53 599.25,29.62 601.51,29.71 603.76,29.80 606.01,29.89 608.27,29.98 610.53,30.07 612.79,30.16 615.06,30.25 617.31,30.33 619.58,30.41 621.85,30.51 624.11,30.59 626.38,30.67 628.66,30.77 630.92,30.85 633.19,30.93 635.47,31.02 637.72,31.10 640.02,31.18 642.29,31.27 644.55,31.35 646.85,31.43 649.13,31.52 651.39,31.60 653.67,31.68 655.96,31.76 658.24,31.84 660.53,31.92 662.81,32.00 665.10,32.08 667.39,32.16 669.68,32.24 671.97,32.32 674.26,32.40 676.54,32.48 678.84,32.55 681.14,32.63 683.43,32.71 685.72,32.78 688.02,32.86 690.32,32.93 692.62,33.01 694.92,33.08 697.22,33.16 699.50,33.23 701.80,33.30 704.13,33.37 706.43,33.45 708.71,33.52 711.02,33.59 713.33,33.66 715.63,33.73 717.94,33.80 720.25,33.87 722.56,33.94 724.86,34.01 727.17,34.07 729.49,34.14 731.79,34.21 734.11,34.27 736.42,34.34 738.74,34.40 741.05,34.47 743.37,34.53 745.68,34.60 747.99,34.66 750.32,34.72 752.63,34.79 754.94,34.85 757.26,34.91 759.58,34.97 761.90,35.03 764.22,35.09 766.54,35.15 768.87,35.21 771.19,35.27 773.49,35.33 775.81,35.38 778.16,35.44 780.46,35.50 782.79,35.55 785.11,35.61 787.43,35.66 789.76,35.71 792.09,35.77 794.41,35.82 796.73,35.87 799.07,35.92 801.40,35.98 803.72,36.03 806.05,36.08 808.37,36.13 810.68,36.18 813.01,36.22 815.36,36.27 817.69,36.32 820.00,36.37 822.33,36.41 824.67,36.46 827.00,36.50 829.33,36.55 831.65,36.59 833.99,36.63 836.32,36.68 838.65,36.72 840.98,36.76 843.31,36.80 845.64,36.84 847.98,36.88 850.31,36.92 852.63,36.96 854.96,36.99 857.31,37.03 859.63,37.07 861.96,37.10 864.30,37.14 866.63,37.17 868.97,37.21 871.28,37.24 873.63,37.27 875.97,37.31 878.28,37.34 880.61,37.37 882.95,37.40 885.28,37.43 887.60,37.46 889.94,37.48 892.28,37.51 894.60,37.54 896.94,37.56 899.28,37.59 901.60,37.62 903.92,37.64 906.27,37.66 908.60,37.69 910.91,37.71 913.25,37.73 915.58,37.75 917.91,37.77 920.24,37.79 922.57,37.81 924.89,37.83 927.23,37.84 929.57,37.86 931.89,37.88 934.22,37.89 936.55,37.91 938.87,37.92 941.21,37.93 943.53,37.95 945.85,37.96 948.18,37.97 950.51,37.98 952.84,37.99 955.14,38.00 957.47,38.00 959.82,38.01 962.12,38.02 964.45,38.02 966.78,38.03 969.10,38.03 971.42,38.04 973.74,38.04 976.06,38.04 978.38,38.04 980.71,38.04 983.03,38.04 985.35,38.04 987.67,38.04 989.99,38.04 992.30,38.04 994.62,38.03 996.94,38.03 999.26,38.02 1001.58,38.02 1003.87,38.01 1006.19,38.00 1008.51,37.99 1010.82,37.98 1013.13,37.97 1015.45,37.96 1017.76,37.95 1020.06,37.94 1022.38,37.92 1024.69,37.91 1027.00,37.89 1029.31,37.88 1031.60,37.86 1033.92,37.84 1036.23,37.83 1038.52,37.81 1040.82,37.79 1043.13,37.77 1045.42,37.75 1047.73,37.72 1050.04,37.70 1052.33,37.68 1054.63,37.65 1056.93,37.63 1059.22,37.60 1061.52,37.57 1063.82,37.54 1066.11,37.51 1068.41,37.48 1070.71,37.45 1073.00,37.42 1075.29,37.39 1077.56,37.36 1079.85,37.32 1082.14,37.29 1084.42,37.25 1086.72,37.21 1089.01,37.18 1091.28,37.14 1093.57,37.10 1095.85,37.06 1098.12,37.02 1100.40,36.97 1102.70,36.93 1104.96,36.89 1107.24,36.84 1109.51,36.80 1111.78,36.75 1114.06,36.70 1116.34,36.65 1118.61,36.61 1120.85,36.56 1123.12,36.50 1125.41,36.45 1127.68,36.40 1129.93,36.35 1132.19,36.29 1134.46,36.24 1136.71,36.18 1138.97,36.12 1141.24,36.06 1143.49,36.00 1145.75,35.94 1148.01,35.88 1150.27,35.82 1152.51,35.76 1154.76,35.69 1157.01,35.63 1159.24,35.56 1161.51,35.49 1163.76,35.43 1165.99,35.36 1168.23,35.29 1170.46,35.22 1172.71,35.14 1174.96,35.07 1177.19,35.00 1179.42,34.92 1181.66,34.85 1183.87,34.77 1186.11,34.69 1188.34,34.61 1190.57,34.53 1192.80,34.45 1195.02,34.37 1197.25,34.29 1199.46,34.21 1201.69,34.12 1203.91,34.04 1206.11,33.96 1208.32,33.87 1210.54,33.78 1212.75,33.69 1214.97,33.60 1217.18,33.51 1219.37,33.42 1221.57,33.32 1223.79,33.23 1225.99,33.13 1228.19,33.04 1230.38,32.94 1232.58,32.84 1234.78,32.74 1236.97,32.64 1239.15,32.54 1241.34,32.43 1243.53,32.33 1245.72,32.22 1247.90,32.12 1250.08,32.01 1252.26,31.90 1254.44,31.79 1256.62,31.68 1258.80,31.57 1260.96,31.46 1263.13,31.34 1265.30,31.23 1267.48,31.11 1269.64,31.00 1271.80,30.88 1273.96,30.76 1276.13,30.64 1278.27,30.52 1280.43,30.39 1282.59,30.27 1284.74,30.15 1286.87,30.02 1289.04,29.89 1291.19,29.77 1293.32,29.64 1295.46,29.51 1297.59,29.38 1299.73,29.24 1301.88,29.11 1304.01,28.98 1306.12,28.84 1308.26,28.70 1310.40,28.56 1312.52,28.43 1314.62,28.29 1316.74,28.14 1318.89,28.00 1320.98,27.86 1323.10,27.71 1325.22,27.57 1327.32,27.43 1329.43,27.28 1331.54,27.13 1333.64,26.98 1335.75,26.83 1337.83,26.68 1339.93,26.52 1342.03,26.37 1344.10,26.21 1346.19,26.05 1348.28,25.89 1350.37,25.73 1352.46,25.57 1354.54,25.41 1356.60,25.25 1358.68,25.08 1360.75,24.92 1362.82,24.75 1364.89,24.58 1366.95,24.41 1369.01,24.24 1371.08,24.07 1373.13,23.90 1375.19,23.72 1377.25,23.55 1379.28,23.37 1381.33,23.19 1383.38,23.01 1385.43,22.83 1387.47,22.65 1389.49,22.48 1391.53,22.29 1393.57,22.11 1395.60,21.92 1397.63,21.74 1399.64,21.55 1401.66,21.36 1403.68,21.16 1405.71,20.97 1407.71,20.78 1409.72,20.58 1411.74,20.39 1413.74,20.19 1415.74,19.99 1417.74,19.79 1419.74,19.59 1421.73,19.39 1423.73,19.18 1425.71,18.98 1427.69,18.78 1429.68,18.57 1431.67,18.36 1435.62,17.94 1439.56,17.51 1443.49,17.08 1447.41,16.64 1451.32,16.20 1455.21,15.75 1459.10,15.30 1462.97,14.84 1466.83,14.39 1470.67,13.92 1474.51,13.44 1478.33,12.96 1482.14,12.48 1485.94,11.99 1489.72,11.49 1493.50,11.00 1497.26,10.49 1501.01,9.98 1504.75,9.46 1508.47,8.94 1512.18,8.42 1515.87,7.88 1519.56,7.34 1523.23,6.80 1526.88,6.25 1530.53,5.69 1534.16,5.14 1537.77,4.57 1541.37,3.99 1544.97,3.41 1548.55,2.83 1552.10,2.25 1555.64,1.65 1559.18,1.05 1562.69,0.45 1566.20,-0.17 1569.69,-0.79 1573.16,-1.41 1576.61,-2.04 1577.81,-2.26"/>